dynawo-integration-tests/src/test/resources/error/powsybl_dynawo.xiidm
<?xml version="1.0" encoding="UTF-8"?>
<iidm:network xmlns:iidm="http://www.powsybl.org/schema/iidm/1_4" id="Nordic32_corrige" caseDate="2019-07-30T00:00:00.000Z" forecastDistance="0" sourceFormat="NF">
    <iidm:substation id="_61a3cd8c-5bc4-4036-a6db-63948c1aa705" country="FR" tso="RTE">
        <iidm:voltageLevel id="4061_400" nominalV="400.0" highVoltageLimit="420.0" topologyKind="BUS_BREAKER">
            <iidm:busBreakerTopology>
                <iidm:bus id="4061_401" v="415.484619140625" angle="6.300595938563826"/>
            </iidm:busBreakerTopology>
        </iidm:voltageLevel>
        <iidm:voltageLevel id="B61___20" nominalV="20.0" highVoltageLimit="21.0" topologyKind="BUS_BREAKER">
            <iidm:busBreakerTopology>
                <iidm:bus id="B61___21" v="19.897838592529297" angle="3.444065045814396"/>
            </iidm:busBreakerTopology>
            <iidm:load id="61_1" loadType="UNDEFINED" p0="500.0" q0="122.5" bus="B61___21" connectableBus="B61___21" p="500.0" q="122.5"/>
        </iidm:voltageLevel>
        <iidm:twoWindingsTransformer id="Tr61-4061" r="0.0" x="0.04000000283122063" g="0.0" b="0.0" ratedU1="400.0" ratedU2="20.0" bus1="4061_401" connectableBus1="4061_401" voltageLevelId1="4061_400" bus2="B61___21" connectableBus2="B61___21" voltageLevelId2="B61___20" p1="500.0" q1="149.27345275878906" p2="-500.0" q2="-122.5">
            <iidm:ratioTapChanger lowTapPosition="0" tapPosition="23" targetDeadband="0.0" loadTapChangingCapabilities="true" regulating="true" targetV="20.0">
                <iidm:terminalRef id="Tr61-4061" side="TWO"/>
                <iidm:step r="0.0" x="0.0" g="0.0" b="0.0" rho="1.25"/>
                <iidm:step r="0.0" x="0.0" g="0.0" b="0.0" rho="1.2345678806304932"/>
                <iidm:step r="0.0" x="0.0" g="0.0" b="0.0" rho="1.2195122241973877"/>
                <iidm:step r="0.0" x="0.0" g="0.0" b="0.0" rho="1.2048193216323853"/>
                <iidm:step r="0.0" x="0.0" g="0.0" b="0.0" rho="1.1904761791229248"/>
                <iidm:step r="0.0" x="0.0" g="0.0" b="0.0" rho="1.1764705181121826"/>
                <iidm:step r="0.0" x="0.0" g="0.0" b="0.0" rho="1.1627906560897827"/>
                <iidm:step r="0.0" x="0.0" g="0.0" b="0.0" rho="1.1494252681732178"/>
                <iidm:step r="0.0" x="0.0" g="0.0" b="0.0" rho="1.1363636255264282"/>
                <iidm:step r="0.0" x="0.0" g="0.0" b="0.0" rho="1.1235954761505127"/>
                <iidm:step r="0.0" x="0.0" g="0.0" b="0.0" rho="1.1111111640930176"/>
                <iidm:step r="0.0" x="0.0" g="0.0" b="0.0" rho="1.0989010334014893"/>
                <iidm:step r="0.0" x="0.0" g="0.0" b="0.0" rho="1.08695650100708"/>
                <iidm:step r="0.0" x="0.0" g="0.0" b="0.0" rho="1.0752688646316528"/>
                <iidm:step r="0.0" x="0.0" g="0.0" b="0.0" rho="1.063829779624939"/>
                <iidm:step r="0.0" x="0.0" g="0.0" b="0.0" rho="1.0526316165924072"/>
                <iidm:step r="0.0" x="0.0" g="0.0" b="0.0" rho="1.0416667461395264"/>
                <iidm:step r="0.0" x="0.0" g="0.0" b="0.0" rho="1.0309277772903442"/>
                <iidm:step r="0.0" x="0.0" g="0.0" b="0.0" rho="1.0204081535339355"/>
                <iidm:step r="0.0" x="0.0" g="0.0" b="0.0" rho="1.0101009607315063"/>
                <iidm:step r="0.0" x="0.0" g="0.0" b="0.0" rho="1.0"/>
                <iidm:step r="0.0" x="0.0" g="0.0" b="0.0" rho="0.9900990128517151"/>
                <iidm:step r="0.0" x="0.0" g="0.0" b="0.0" rho="0.9803921580314636"/>
                <iidm:step r="0.0" x="0.0" g="0.0" b="0.0" rho="0.9708738327026367"/>
                <iidm:step r="0.0" x="0.0" g="0.0" b="0.0" rho="0.9615384936332703"/>
                <iidm:step r="0.0" x="0.0" g="0.0" b="0.0" rho="0.9523810148239136"/>
                <iidm:step r="0.0" x="0.0" g="0.0" b="0.0" rho="0.943396270275116"/>
                <iidm:step r="0.0" x="0.0" g="0.0" b="0.0" rho="0.9345793724060059"/>
                <iidm:step r="0.0" x="0.0" g="0.0" b="0.0" rho="0.9259259104728699"/>
                <iidm:step r="0.0" x="0.0" g="0.0" b="0.0" rho="0.9174311757087708"/>
                <iidm:step r="0.0" x="0.0" g="0.0" b="0.0" rho="0.9090908765792847"/>
                <iidm:step r="0.0" x="0.0" g="0.0" b="0.0" rho="0.9009009003639221"/>
                <iidm:step r="0.0" x="0.0" g="0.0" b="0.0" rho="0.8928571343421936"/>
            </iidm:ratioTapChanger>
            <iidm:currentLimits1 permanentLimit="28867.5"/>
            <iidm:currentLimits2 permanentLimit="28867.5"/>
        </iidm:twoWindingsTransformer>
    </iidm:substation>
    <iidm:substation id="_4cd377f5-06b5-4996-862c-81be74364057" country="FR" tso="RTE">
        <iidm:voltageLevel id="4021_400" nominalV="400.0" highVoltageLimit="420.0" topologyKind="BUS_BREAKER">
            <iidm:busBreakerTopology>
                <iidm:bus id="4021_401" v="419.5409240722656" angle="28.14791307910706"/>
            </iidm:busBreakerTopology>
        </iidm:voltageLevel>
        <iidm:voltageLevel id="BG11__15" nominalV="15.0" highVoltageLimit="15.750001907348633" topologyKind="BUS_BREAKER">
            <iidm:busBreakerTopology>
                <iidm:bus id="BG11__11" v="15.316505432128906" angle="35.18725630188394"/>
            </iidm:busBreakerTopology>
            <iidm:generator id="g11" energySource="HYDRO" minP="0.0" maxP="9999.0" voltageRegulatorOn="true" targetP="250.0" targetV="15.316498756408691" targetQ="60.70000076293945" bus="BG11__11" connectableBus="BG11__11" p="-250.0" q="-60.70000076293945">
                <iidm:property name="genreCvg" value="AUTRE"/>
                <iidm:reactiveCapabilityCurve>
                    <iidm:point p="0.0" minQ="-300.0" maxQ="300.0"/>
                    <iidm:point p="9999.0" minQ="-300.0" maxQ="300.0"/>
                </iidm:reactiveCapabilityCurve>
            </iidm:generator>
        </iidm:voltageLevel>
        <iidm:twoWindingsTransformer id="Tr4021-g11" r="0.0" x="0.11250000447034836" g="0.0" b="0.0" ratedU1="400.0" ratedU2="15.0" bus1="4021_401" connectableBus1="4021_401" voltageLevelId1="4021_400" bus2="BG11__11" connectableBus2="BG11__11" voltageLevelId2="BG11__15" p1="-250.0" q1="-28.96128273010254" p2="250.0" q2="60.70000076293945">
            <iidm:ratioTapChanger lowTapPosition="0" tapPosition="10" loadTapChangingCapabilities="false">
                <iidm:step r="0.0" x="0.0" g="0.0" b="0.0" rho="1.0526316165924072"/>
                <iidm:step r="0.0" x="0.0" g="0.0" b="0.0" rho="1.0416667461395264"/>
                <iidm:step r="0.0" x="0.0" g="0.0" b="0.0" rho="1.0309277772903442"/>
                <iidm:step r="0.0" x="0.0" g="0.0" b="0.0" rho="1.0204081535339355"/>
                <iidm:step r="0.0" x="0.0" g="0.0" b="0.0" rho="1.0101009607315063"/>
                <iidm:step r="0.0" x="0.0" g="0.0" b="0.0" rho="1.0"/>
                <iidm:step r="0.0" x="0.0" g="0.0" b="0.0" rho="0.9900990128517151"/>
                <iidm:step r="0.0" x="0.0" g="0.0" b="0.0" rho="0.9803921580314636"/>
                <iidm:step r="0.0" x="0.0" g="0.0" b="0.0" rho="0.9708738327026367"/>
                <iidm:step r="0.0" x="0.0" g="0.0" b="0.0" rho="0.9615384936332703"/>
                <iidm:step r="0.0" x="0.0" g="0.0" b="0.0" rho="0.9523810148239136"/>
            </iidm:ratioTapChanger>
            <iidm:currentLimits1 permanentLimit="11547.0"/>
            <iidm:currentLimits2 permanentLimit="11547.0"/>
        </iidm:twoWindingsTransformer>
    </iidm:substation>
    <iidm:substation id="_2f74dc4b-0891-4aac-8370-b0477b6f163c" country="FR" tso="RTE">
        <iidm:voltageLevel id="4042_400" nominalV="400.0" highVoltageLimit="420.0" topologyKind="BUS_BREAKER">
            <iidm:busBreakerTopology>
                <iidm:bus id="4042_401" v="417.1566162109375" angle="6.856908443159018"/>
            </iidm:busBreakerTopology>
        </iidm:voltageLevel>
        <iidm:voltageLevel id="B42___20" nominalV="20.0" highVoltageLimit="21.0" topologyKind="BUS_BREAKER">
            <iidm:busBreakerTopology>
                <iidm:bus id="B42___21" v="19.905364990234375" angle="4.012912868527265"/>
            </iidm:busBreakerTopology>
            <iidm:load id="42_1" loadType="UNDEFINED" p0="400.0" q0="127.4000015258789" bus="B42___21" connectableBus="B42___21" p="400.0" q="127.4000015258789"/>
        </iidm:voltageLevel>
        <iidm:voltageLevel id="BG14__15" nominalV="15.0" highVoltageLimit="15.750001907348633" topologyKind="BUS_BREAKER">
            <iidm:busBreakerTopology>
                <iidm:bus id="BG14__11" v="15.681757926940918" angle="14.327139699254854"/>
            </iidm:busBreakerTopology>
            <iidm:generator id="g14" energySource="THERMAL" minP="0.0" maxP="9999.0" voltageRegulatorOn="true" targetP="630.0" targetV="15.680998802185059" targetQ="295.8999938964844" bus="BG14__11" connectableBus="BG14__11" p="-630.0" q="-295.8999938964844">
                <iidm:property name="genreCvg" value="AUTRE"/>
                <iidm:reactiveCapabilityCurve>
                    <iidm:point p="0.0" minQ="-700.0" maxQ="700.0"/>
                    <iidm:point p="9999.0" minQ="-700.0" maxQ="700.0"/>
                </iidm:reactiveCapabilityCurve>
            </iidm:generator>
        </iidm:voltageLevel>
        <iidm:twoWindingsTransformer id="Tr4042-g14" r="0.0" x="0.048214271664619446" g="0.0" b="0.0" ratedU1="400.0" ratedU2="15.0" bus1="4042_401" connectableBus1="4042_401" voltageLevelId1="4042_400" bus2="BG14__11" connectableBus2="BG14__11" voltageLevelId2="BG14__15" p1="-630.0" q1="-200.91802978515625" p2="630.0" q2="295.8999938964844">
            <iidm:ratioTapChanger lowTapPosition="0" tapPosition="10" loadTapChangingCapabilities="false">
                <iidm:step r="0.0" x="0.0" g="0.0" b="0.0" rho="1.0526316165924072"/>
                <iidm:step r="0.0" x="0.0" g="0.0" b="0.0" rho="1.0416667461395264"/>
                <iidm:step r="0.0" x="0.0" g="0.0" b="0.0" rho="1.0309277772903442"/>
                <iidm:step r="0.0" x="0.0" g="0.0" b="0.0" rho="1.0204081535339355"/>
                <iidm:step r="0.0" x="0.0" g="0.0" b="0.0" rho="1.0101009607315063"/>
                <iidm:step r="0.0" x="0.0" g="0.0" b="0.0" rho="1.0"/>
                <iidm:step r="0.0" x="0.0" g="0.0" b="0.0" rho="0.9900990128517151"/>
                <iidm:step r="0.0" x="0.0" g="0.0" b="0.0" rho="0.9803921580314636"/>
                <iidm:step r="0.0" x="0.0" g="0.0" b="0.0" rho="0.9708738327026367"/>
                <iidm:step r="0.0" x="0.0" g="0.0" b="0.0" rho="0.9615384936332703"/>
                <iidm:step r="0.0" x="0.0" g="0.0" b="0.0" rho="0.9523810148239136"/>
            </iidm:ratioTapChanger>
            <iidm:currentLimits1 permanentLimit="26943.0"/>
            <iidm:currentLimits2 permanentLimit="26943.0"/>
        </iidm:twoWindingsTransformer>
        <iidm:twoWindingsTransformer id="Tr42-4042" r="0.0" x="0.05000000447034836" g="0.0" b="0.0" ratedU1="400.0" ratedU2="20.0" bus1="4042_401" connectableBus1="4042_401" voltageLevelId1="4042_400" bus2="B42___21" connectableBus2="B42___21" voltageLevelId2="B42___20" p1="400.0" q1="149.63880920410156" p2="-400.0" q2="-127.4000015258789">
            <iidm:ratioTapChanger lowTapPosition="0" tapPosition="23" targetDeadband="0.0" loadTapChangingCapabilities="true" regulating="true" targetV="20.0">
                <iidm:terminalRef id="Tr42-4042" side="TWO"/>
                <iidm:step r="0.0" x="0.0" g="0.0" b="0.0" rho="1.25"/>
                <iidm:step r="0.0" x="0.0" g="0.0" b="0.0" rho="1.2345678806304932"/>
                <iidm:step r="0.0" x="0.0" g="0.0" b="0.0" rho="1.2195122241973877"/>
                <iidm:step r="0.0" x="0.0" g="0.0" b="0.0" rho="1.2048193216323853"/>
                <iidm:step r="0.0" x="0.0" g="0.0" b="0.0" rho="1.1904761791229248"/>
                <iidm:step r="0.0" x="0.0" g="0.0" b="0.0" rho="1.1764705181121826"/>
                <iidm:step r="0.0" x="0.0" g="0.0" b="0.0" rho="1.1627906560897827"/>
                <iidm:step r="0.0" x="0.0" g="0.0" b="0.0" rho="1.1494252681732178"/>
                <iidm:step r="0.0" x="0.0" g="0.0" b="0.0" rho="1.1363636255264282"/>
                <iidm:step r="0.0" x="0.0" g="0.0" b="0.0" rho="1.1235954761505127"/>
                <iidm:step r="0.0" x="0.0" g="0.0" b="0.0" rho="1.1111111640930176"/>
                <iidm:step r="0.0" x="0.0" g="0.0" b="0.0" rho="1.0989010334014893"/>
                <iidm:step r="0.0" x="0.0" g="0.0" b="0.0" rho="1.08695650100708"/>
                <iidm:step r="0.0" x="0.0" g="0.0" b="0.0" rho="1.0752688646316528"/>
                <iidm:step r="0.0" x="0.0" g="0.0" b="0.0" rho="1.063829779624939"/>
                <iidm:step r="0.0" x="0.0" g="0.0" b="0.0" rho="1.0526316165924072"/>
                <iidm:step r="0.0" x="0.0" g="0.0" b="0.0" rho="1.0416667461395264"/>
                <iidm:step r="0.0" x="0.0" g="0.0" b="0.0" rho="1.0309277772903442"/>
                <iidm:step r="0.0" x="0.0" g="0.0" b="0.0" rho="1.0204081535339355"/>
                <iidm:step r="0.0" x="0.0" g="0.0" b="0.0" rho="1.0101009607315063"/>
                <iidm:step r="0.0" x="0.0" g="0.0" b="0.0" rho="1.0"/>
                <iidm:step r="0.0" x="0.0" g="0.0" b="0.0" rho="0.9900990128517151"/>
                <iidm:step r="0.0" x="0.0" g="0.0" b="0.0" rho="0.9803921580314636"/>
                <iidm:step r="0.0" x="0.0" g="0.0" b="0.0" rho="0.9708738327026367"/>
                <iidm:step r="0.0" x="0.0" g="0.0" b="0.0" rho="0.9615384936332703"/>
                <iidm:step r="0.0" x="0.0" g="0.0" b="0.0" rho="0.9523810148239136"/>
                <iidm:step r="0.0" x="0.0" g="0.0" b="0.0" rho="0.943396270275116"/>
                <iidm:step r="0.0" x="0.0" g="0.0" b="0.0" rho="0.9345793724060059"/>
                <iidm:step r="0.0" x="0.0" g="0.0" b="0.0" rho="0.9259259104728699"/>
                <iidm:step r="0.0" x="0.0" g="0.0" b="0.0" rho="0.9174311757087708"/>
                <iidm:step r="0.0" x="0.0" g="0.0" b="0.0" rho="0.9090908765792847"/>
                <iidm:step r="0.0" x="0.0" g="0.0" b="0.0" rho="0.9009009003639221"/>
                <iidm:step r="0.0" x="0.0" g="0.0" b="0.0" rho="0.8928571343421936"/>
            </iidm:ratioTapChanger>
            <iidm:currentLimits1 permanentLimit="23094.0"/>
            <iidm:currentLimits2 permanentLimit="23094.0"/>
        </iidm:twoWindingsTransformer>
    </iidm:substation>
    <iidm:substation id="_aa90c941-14e3-4c16-8ed4-513a0206d631" country="FR" tso="RTE">
        <iidm:voltageLevel id="1021_130" nominalV="130.0" highVoltageLimit="136.5" topologyKind="BUS_BREAKER">
            <iidm:busBreakerTopology>
                <iidm:bus id="1021_131" v="134.0380859375" angle="66.87475782399919"/>
            </iidm:busBreakerTopology>
        </iidm:voltageLevel>
        <iidm:voltageLevel id="BG04__15" nominalV="15.0" highVoltageLimit="15.750001907348633" topologyKind="BUS_BREAKER">
            <iidm:busBreakerTopology>
                <iidm:bus id="BG04__11" v="15.507905006408691" angle="72.25763673907541"/>
            </iidm:busBreakerTopology>
            <iidm:generator id="g04" energySource="HYDRO" minP="0.0" maxP="9999.0" voltageRegulatorOn="true" targetP="400.0" targetV="15.508500099182129" targetQ="30.375099182128906" bus="BG04__11" connectableBus="BG04__11" p="-400.0" q="-30.375099182128906">
                <iidm:property name="genreCvg" value="AUTRE"/>
                <iidm:reactiveCapabilityCurve>
                    <iidm:point p="0.0" minQ="-600.0" maxQ="600.0"/>
                    <iidm:point p="9999.0" minQ="-600.0" maxQ="600.0"/>
                </iidm:reactiveCapabilityCurve>
            </iidm:generator>
        </iidm:voltageLevel>
        <iidm:twoWindingsTransformer id="Tr1021-g4" r="0.0" x="0.056250009685754776" g="0.0" b="0.0" ratedU1="130.0" ratedU2="15.0" bus1="1021_131" connectableBus1="1021_131" voltageLevelId1="1021_130" bus2="BG04__11" connectableBus2="BG04__11" voltageLevelId2="BG04__15" p1="-400.0" q1="7.263504981994629" p2="400.0" q2="30.375099182128906">
            <iidm:ratioTapChanger lowTapPosition="0" tapPosition="5" loadTapChangingCapabilities="false">
                <iidm:step r="0.0" x="0.0" g="0.0" b="0.0" rho="1.0526316165924072"/>
                <iidm:step r="0.0" x="0.0" g="0.0" b="0.0" rho="1.0416667461395264"/>
                <iidm:step r="0.0" x="0.0" g="0.0" b="0.0" rho="1.0309277772903442"/>
                <iidm:step r="0.0" x="0.0" g="0.0" b="0.0" rho="1.0204081535339355"/>
                <iidm:step r="0.0" x="0.0" g="0.0" b="0.0" rho="1.0101009607315063"/>
                <iidm:step r="0.0" x="0.0" g="0.0" b="0.0" rho="1.0"/>
                <iidm:step r="0.0" x="0.0" g="0.0" b="0.0" rho="0.9900990128517151"/>
                <iidm:step r="0.0" x="0.0" g="0.0" b="0.0" rho="0.9803921580314636"/>
                <iidm:step r="0.0" x="0.0" g="0.0" b="0.0" rho="0.9708738327026367"/>
                <iidm:step r="0.0" x="0.0" g="0.0" b="0.0" rho="0.9615384936332703"/>
                <iidm:step r="0.0" x="0.0" g="0.0" b="0.0" rho="0.9523810148239136"/>
            </iidm:ratioTapChanger>
            <iidm:currentLimits1 permanentLimit="23094.0"/>
            <iidm:currentLimits2 permanentLimit="23094.0"/>
        </iidm:twoWindingsTransformer>
    </iidm:substation>
    <iidm:substation id="_1a6fe4b6-a0fc-47fa-8946-62398ab9ae75" country="FR" tso="RTE">
        <iidm:voltageLevel id="1042_130" nominalV="130.0" highVoltageLimit="136.5" topologyKind="BUS_BREAKER">
            <iidm:busBreakerTopology>
                <iidm:bus id="1042_131" v="131.8934783935547" angle="-3.1568910228216795"/>
            </iidm:busBreakerTopology>
        </iidm:voltageLevel>
        <iidm:voltageLevel id="B02___20" nominalV="20.0" highVoltageLimit="21.0" topologyKind="BUS_BREAKER">
            <iidm:busBreakerTopology>
                <iidm:bus id="B02___21" v="20.025129318237305" angle="-6.260787461646876"/>
            </iidm:busBreakerTopology>
            <iidm:load id="02_1" loadType="UNDEFINED" p0="330.0260009765625" q0="71.01129913330078" bus="B02___21" connectableBus="B02___21" p="330.0260009765625" q="71.01129913330078"/>
        </iidm:voltageLevel>
        <iidm:voltageLevel id="BG06__15" nominalV="15.0" highVoltageLimit="15.750001907348633" topologyKind="BUS_BREAKER">
            <iidm:busBreakerTopology>
                <iidm:bus id="BG06__11" v="15.127096176147461" angle="4.806546699136897"/>
            </iidm:busBreakerTopology>
            <iidm:generator id="g06" energySource="THERMAL" minP="0.0" maxP="9999.0" voltageRegulatorOn="true" targetP="360.0" targetV="15.126001358032227" targetQ="138.60000610351562" bus="BG06__11" connectableBus="BG06__11" p="-360.0" q="-138.60000610351562">
                <iidm:property name="genreCvg" value="AUTRE"/>
                <iidm:reactiveCapabilityCurve>
                    <iidm:point p="0.0" minQ="-400.0" maxQ="400.0"/>
                    <iidm:point p="9999.0" minQ="-400.0" maxQ="400.0"/>
                </iidm:reactiveCapabilityCurve>
            </iidm:generator>
        </iidm:voltageLevel>
        <iidm:twoWindingsTransformer id="Tr1042-g6" r="0.0" x="0.08437501639127731" g="0.0" b="0.0" ratedU1="130.0" ratedU2="15.0" bus1="1042_131" connectableBus1="1042_131" voltageLevelId1="1042_130" bus2="BG06__11" connectableBus2="BG06__11" voltageLevelId2="BG06__15" p1="-360.0" q1="-83.73004150390625" p2="360.0" q2="138.60000610351562">
            <iidm:ratioTapChanger lowTapPosition="0" tapPosition="10" loadTapChangingCapabilities="false">
                <iidm:step r="0.0" x="0.0" g="0.0" b="0.0" rho="1.0526316165924072"/>
                <iidm:step r="0.0" x="0.0" g="0.0" b="0.0" rho="1.0416667461395264"/>
                <iidm:step r="0.0" x="0.0" g="0.0" b="0.0" rho="1.0309277772903442"/>
                <iidm:step r="0.0" x="0.0" g="0.0" b="0.0" rho="1.0204081535339355"/>
                <iidm:step r="0.0" x="0.0" g="0.0" b="0.0" rho="1.0101009607315063"/>
                <iidm:step r="0.0" x="0.0" g="0.0" b="0.0" rho="1.0"/>
                <iidm:step r="0.0" x="0.0" g="0.0" b="0.0" rho="0.9900990128517151"/>
                <iidm:step r="0.0" x="0.0" g="0.0" b="0.0" rho="0.9803921580314636"/>
                <iidm:step r="0.0" x="0.0" g="0.0" b="0.0" rho="0.9708738327026367"/>
                <iidm:step r="0.0" x="0.0" g="0.0" b="0.0" rho="0.9615384936332703"/>
                <iidm:step r="0.0" x="0.0" g="0.0" b="0.0" rho="0.9523810148239136"/>
            </iidm:ratioTapChanger>
            <iidm:currentLimits1 permanentLimit="15395.9990234375"/>
            <iidm:currentLimits2 permanentLimit="15395.9990234375"/>
        </iidm:twoWindingsTransformer>
        <iidm:twoWindingsTransformer id="Tr2-1042" r="0.0" x="0.06666676700115204" g="0.0" b="0.0" ratedU1="130.0" ratedU2="20.0" bus1="1042_131" connectableBus1="1042_131" voltageLevelId1="1042_130" bus2="B02___21" connectableBus2="B02___21" voltageLevelId2="B02___20" p1="330.0260009765625" q1="89.95697784423828" p2="-330.0260009765625" q2="-71.01129913330078">
            <iidm:ratioTapChanger lowTapPosition="0" tapPosition="20" targetDeadband="0.0" loadTapChangingCapabilities="true" regulating="true" targetV="20.0">
                <iidm:terminalRef id="Tr2-1042" side="TWO"/>
                <iidm:step r="0.0" x="0.0" g="0.0" b="0.0" rho="1.25"/>
                <iidm:step r="0.0" x="0.0" g="0.0" b="0.0" rho="1.2345678806304932"/>
                <iidm:step r="0.0" x="0.0" g="0.0" b="0.0" rho="1.2195122241973877"/>
                <iidm:step r="0.0" x="0.0" g="0.0" b="0.0" rho="1.2048193216323853"/>
                <iidm:step r="0.0" x="0.0" g="0.0" b="0.0" rho="1.1904761791229248"/>
                <iidm:step r="0.0" x="0.0" g="0.0" b="0.0" rho="1.1764705181121826"/>
                <iidm:step r="0.0" x="0.0" g="0.0" b="0.0" rho="1.1627906560897827"/>
                <iidm:step r="0.0" x="0.0" g="0.0" b="0.0" rho="1.1494252681732178"/>
                <iidm:step r="0.0" x="0.0" g="0.0" b="0.0" rho="1.1363636255264282"/>
                <iidm:step r="0.0" x="0.0" g="0.0" b="0.0" rho="1.1235954761505127"/>
                <iidm:step r="0.0" x="0.0" g="0.0" b="0.0" rho="1.1111111640930176"/>
                <iidm:step r="0.0" x="0.0" g="0.0" b="0.0" rho="1.0989010334014893"/>
                <iidm:step r="0.0" x="0.0" g="0.0" b="0.0" rho="1.08695650100708"/>
                <iidm:step r="0.0" x="0.0" g="0.0" b="0.0" rho="1.0752688646316528"/>
                <iidm:step r="0.0" x="0.0" g="0.0" b="0.0" rho="1.063829779624939"/>
                <iidm:step r="0.0" x="0.0" g="0.0" b="0.0" rho="1.0526316165924072"/>
                <iidm:step r="0.0" x="0.0" g="0.0" b="0.0" rho="1.0416667461395264"/>
                <iidm:step r="0.0" x="0.0" g="0.0" b="0.0" rho="1.0309277772903442"/>
                <iidm:step r="0.0" x="0.0" g="0.0" b="0.0" rho="1.0204081535339355"/>
                <iidm:step r="0.0" x="0.0" g="0.0" b="0.0" rho="1.0101009607315063"/>
                <iidm:step r="0.0" x="0.0" g="0.0" b="0.0" rho="1.0"/>
                <iidm:step r="0.0" x="0.0" g="0.0" b="0.0" rho="0.9900990128517151"/>
                <iidm:step r="0.0" x="0.0" g="0.0" b="0.0" rho="0.9803921580314636"/>
                <iidm:step r="0.0" x="0.0" g="0.0" b="0.0" rho="0.9708738327026367"/>
                <iidm:step r="0.0" x="0.0" g="0.0" b="0.0" rho="0.9615384936332703"/>
                <iidm:step r="0.0" x="0.0" g="0.0" b="0.0" rho="0.9523810148239136"/>
                <iidm:step r="0.0" x="0.0" g="0.0" b="0.0" rho="0.943396270275116"/>
                <iidm:step r="0.0" x="0.0" g="0.0" b="0.0" rho="0.9345793724060059"/>
                <iidm:step r="0.0" x="0.0" g="0.0" b="0.0" rho="0.9259259104728699"/>
                <iidm:step r="0.0" x="0.0" g="0.0" b="0.0" rho="0.9174311757087708"/>
                <iidm:step r="0.0" x="0.0" g="0.0" b="0.0" rho="0.9090908765792847"/>
                <iidm:step r="0.0" x="0.0" g="0.0" b="0.0" rho="0.9009009003639221"/>
                <iidm:step r="0.0" x="0.0" g="0.0" b="0.0" rho="0.8928571343421936"/>
            </iidm:ratioTapChanger>
            <iidm:currentLimits1 permanentLimit="17320.5"/>
            <iidm:currentLimits2 permanentLimit="17320.5"/>
        </iidm:twoWindingsTransformer>
    </iidm:substation>
    <iidm:substation id="_02dfeaeb-18de-4cb0-aaba-8231a11626da" country="FR" tso="RTE">
        <iidm:voltageLevel id="4051_400" nominalV="400.0" highVoltageLimit="420.0" topologyKind="BUS_BREAKER">
            <iidm:busBreakerTopology>
                <iidm:bus id="4051_401" v="426.3910827636719" angle="-6.780868800902912"/>
            </iidm:busBreakerTopology>
            <iidm:shunt id="4051-Cap" sectionCount="1" voltageRegulatorOn="false" bus="4051_401" connectableBus="4051_401" q="-113.63086700439453">
                <iidm:property name="qMax" value="100"/>
                <iidm:shuntLinearModel bPerSection="6.249999860301614E-4" maximumSectionCount="1"/>
            </iidm:shunt>
        </iidm:voltageLevel>
        <iidm:voltageLevel id="B51___20" nominalV="20.0" highVoltageLimit="21.0" topologyKind="BUS_BREAKER">
            <iidm:busBreakerTopology>
                <iidm:bus id="B51___21" v="19.956132888793945" angle="-9.610070185792416"/>
            </iidm:busBreakerTopology>
            <iidm:load id="51_1" loadType="UNDEFINED" p0="800.0" q0="258.20001220703125" bus="B51___21" connectableBus="B51___21" p="800.0" q="258.20001220703125"/>
        </iidm:voltageLevel>
        <iidm:voltageLevel id="BG16__15" nominalV="15.0" highVoltageLimit="15.750001907348633" topologyKind="BUS_BREAKER">
            <iidm:busBreakerTopology>
                <iidm:bus id="BG16__11" v="15.797141075134277" angle="0.12587104825407913"/>
            </iidm:busBreakerTopology>
            <iidm:generator id="g16" energySource="THERMAL" minP="0.0" maxP="9999.0" voltageRegulatorOn="true" targetP="600.0" targetV="15.796499252319336" targetQ="222.60000610351562" bus="BG16__11" connectableBus="BG16__11" p="-600.0" q="-222.60000610351562">
                <iidm:property name="genreCvg" value="AUTRE"/>
                <iidm:reactiveCapabilityCurve>
                    <iidm:point p="0.0" minQ="-700.0" maxQ="700.0"/>
                    <iidm:point p="9999.0" minQ="-700.0" maxQ="700.0"/>
                </iidm:reactiveCapabilityCurve>
            </iidm:generator>
        </iidm:voltageLevel>
        <iidm:twoWindingsTransformer id="Tr4051-g16" r="0.0" x="0.048214271664619446" g="0.0" b="0.0" ratedU1="400.0" ratedU2="15.0" bus1="4051_401" connectableBus1="4051_401" voltageLevelId1="4051_400" bus2="BG16__11" connectableBus2="BG16__11" voltageLevelId2="BG16__15" p1="-600.0" q1="-143.47271728515625" p2="600.0" q2="222.60000610351562">
            <iidm:ratioTapChanger lowTapPosition="0" tapPosition="10" loadTapChangingCapabilities="false">
                <iidm:step r="0.0" x="0.0" g="0.0" b="0.0" rho="1.0526316165924072"/>
                <iidm:step r="0.0" x="0.0" g="0.0" b="0.0" rho="1.0416667461395264"/>
                <iidm:step r="0.0" x="0.0" g="0.0" b="0.0" rho="1.0309277772903442"/>
                <iidm:step r="0.0" x="0.0" g="0.0" b="0.0" rho="1.0204081535339355"/>
                <iidm:step r="0.0" x="0.0" g="0.0" b="0.0" rho="1.0101009607315063"/>
                <iidm:step r="0.0" x="0.0" g="0.0" b="0.0" rho="1.0"/>
                <iidm:step r="0.0" x="0.0" g="0.0" b="0.0" rho="0.9900990128517151"/>
                <iidm:step r="0.0" x="0.0" g="0.0" b="0.0" rho="0.9803921580314636"/>
                <iidm:step r="0.0" x="0.0" g="0.0" b="0.0" rho="0.9708738327026367"/>
                <iidm:step r="0.0" x="0.0" g="0.0" b="0.0" rho="0.9615384936332703"/>
                <iidm:step r="0.0" x="0.0" g="0.0" b="0.0" rho="0.9523810148239136"/>
            </iidm:ratioTapChanger>
            <iidm:currentLimits1 permanentLimit="26943.0"/>
            <iidm:currentLimits2 permanentLimit="26943.0"/>
        </iidm:twoWindingsTransformer>
        <iidm:twoWindingsTransformer id="Tr51-4051" r="0.0" x="0.02500000223517418" g="0.0" b="0.0" ratedU1="400.0" ratedU2="20.0" bus1="4051_401" connectableBus1="4051_401" voltageLevelId1="4051_400" bus2="B51___21" connectableBus2="B51___21" voltageLevelId2="B51___20" p1="800.0" q1="302.56109619140625" p2="-800.0" q2="-258.20001220703125">
            <iidm:ratioTapChanger lowTapPosition="0" tapPosition="25" targetDeadband="0.0" loadTapChangingCapabilities="true" regulating="true" targetV="20.0">
                <iidm:terminalRef id="Tr51-4051" side="TWO"/>
                <iidm:step r="0.0" x="0.0" g="0.0" b="0.0" rho="1.25"/>
                <iidm:step r="0.0" x="0.0" g="0.0" b="0.0" rho="1.2345678806304932"/>
                <iidm:step r="0.0" x="0.0" g="0.0" b="0.0" rho="1.2195122241973877"/>
                <iidm:step r="0.0" x="0.0" g="0.0" b="0.0" rho="1.2048193216323853"/>
                <iidm:step r="0.0" x="0.0" g="0.0" b="0.0" rho="1.1904761791229248"/>
                <iidm:step r="0.0" x="0.0" g="0.0" b="0.0" rho="1.1764705181121826"/>
                <iidm:step r="0.0" x="0.0" g="0.0" b="0.0" rho="1.1627906560897827"/>
                <iidm:step r="0.0" x="0.0" g="0.0" b="0.0" rho="1.1494252681732178"/>
                <iidm:step r="0.0" x="0.0" g="0.0" b="0.0" rho="1.1363636255264282"/>
                <iidm:step r="0.0" x="0.0" g="0.0" b="0.0" rho="1.1235954761505127"/>
                <iidm:step r="0.0" x="0.0" g="0.0" b="0.0" rho="1.1111111640930176"/>
                <iidm:step r="0.0" x="0.0" g="0.0" b="0.0" rho="1.0989010334014893"/>
                <iidm:step r="0.0" x="0.0" g="0.0" b="0.0" rho="1.08695650100708"/>
                <iidm:step r="0.0" x="0.0" g="0.0" b="0.0" rho="1.0752688646316528"/>
                <iidm:step r="0.0" x="0.0" g="0.0" b="0.0" rho="1.063829779624939"/>
                <iidm:step r="0.0" x="0.0" g="0.0" b="0.0" rho="1.0526316165924072"/>
                <iidm:step r="0.0" x="0.0" g="0.0" b="0.0" rho="1.0416667461395264"/>
                <iidm:step r="0.0" x="0.0" g="0.0" b="0.0" rho="1.0309277772903442"/>
                <iidm:step r="0.0" x="0.0" g="0.0" b="0.0" rho="1.0204081535339355"/>
                <iidm:step r="0.0" x="0.0" g="0.0" b="0.0" rho="1.0101009607315063"/>
                <iidm:step r="0.0" x="0.0" g="0.0" b="0.0" rho="1.0"/>
                <iidm:step r="0.0" x="0.0" g="0.0" b="0.0" rho="0.9900990128517151"/>
                <iidm:step r="0.0" x="0.0" g="0.0" b="0.0" rho="0.9803921580314636"/>
                <iidm:step r="0.0" x="0.0" g="0.0" b="0.0" rho="0.9708738327026367"/>
                <iidm:step r="0.0" x="0.0" g="0.0" b="0.0" rho="0.9615384936332703"/>
                <iidm:step r="0.0" x="0.0" g="0.0" b="0.0" rho="0.9523810148239136"/>
                <iidm:step r="0.0" x="0.0" g="0.0" b="0.0" rho="0.943396270275116"/>
                <iidm:step r="0.0" x="0.0" g="0.0" b="0.0" rho="0.9345793724060059"/>
                <iidm:step r="0.0" x="0.0" g="0.0" b="0.0" rho="0.9259259104728699"/>
                <iidm:step r="0.0" x="0.0" g="0.0" b="0.0" rho="0.9174311757087708"/>
                <iidm:step r="0.0" x="0.0" g="0.0" b="0.0" rho="0.9090908765792847"/>
                <iidm:step r="0.0" x="0.0" g="0.0" b="0.0" rho="0.9009009003639221"/>
                <iidm:step r="0.0" x="0.0" g="0.0" b="0.0" rho="0.8928571343421936"/>
            </iidm:ratioTapChanger>
            <iidm:currentLimits1 permanentLimit="46188.0"/>
            <iidm:currentLimits2 permanentLimit="46188.0"/>
        </iidm:twoWindingsTransformer>
    </iidm:substation>
    <iidm:substation id="_2b63dcac-a5cd-4a2f-9b11-6815f5407766" country="FR" tso="RTE">
        <iidm:voltageLevel id="4047_400" nominalV="400.0" highVoltageLimit="420.0" topologyKind="BUS_BREAKER">
            <iidm:busBreakerTopology>
                <iidm:bus id="4047_401" v="423.63946533203125" angle="4.680881463692417"/>
            </iidm:busBreakerTopology>
        </iidm:voltageLevel>
        <iidm:voltageLevel id="B47___20" nominalV="20.0" highVoltageLimit="21.0" topologyKind="BUS_BREAKER">
            <iidm:busBreakerTopology>
                <iidm:bus id="B47___21" v="19.900156021118164" angle="1.8521784691689118"/>
            </iidm:busBreakerTopology>
            <iidm:load id="47_1" loadType="UNDEFINED" p0="100.01100158691406" q0="44.0099983215332" bus="B47___21" connectableBus="B47___21" p="100.01100158691406" q="44.0099983215332"/>
        </iidm:voltageLevel>
        <iidm:voltageLevel id="BG15__15" nominalV="15.0" highVoltageLimit="15.750001907348633" topologyKind="BUS_BREAKER">
            <iidm:busBreakerTopology>
                <iidm:bus id="BG15__11" v="15.68320083618164" angle="12.035483166668639"/>
            </iidm:busBreakerTopology>
            <iidm:generator id="g15" energySource="THERMAL" minP="0.0" maxP="9999.0" voltageRegulatorOn="true" targetP="1080.0" targetV="15.68249797821045" targetQ="377.8999938964844" bus="BG15__11" connectableBus="BG15__11" p="-1080.0" q="-377.8999938964844">
                <iidm:property name="genreCvg" value="AUTRE"/>
                <iidm:reactiveCapabilityCurve>
                    <iidm:point p="0.0" minQ="-1200.0" maxQ="1200.0"/>
                    <iidm:point p="9999.0" minQ="-1200.0" maxQ="1200.0"/>
                </iidm:reactiveCapabilityCurve>
            </iidm:generator>
        </iidm:voltageLevel>
        <iidm:twoWindingsTransformer id="Tr4047-g15" r="0.0" x="0.02812500111758709" g="0.0" b="0.0" ratedU1="400.0" ratedU2="15.0" bus1="4047_401" connectableBus1="4047_401" voltageLevelId1="4047_400" bus2="BG15__11" connectableBus2="BG15__11" voltageLevelId2="BG15__15" p1="-1080.0" q1="-228.19650268554688" p2="1080.0" q2="377.8999938964844">
            <iidm:ratioTapChanger lowTapPosition="0" tapPosition="10" loadTapChangingCapabilities="false">
                <iidm:step r="0.0" x="0.0" g="0.0" b="0.0" rho="1.0526316165924072"/>
                <iidm:step r="0.0" x="0.0" g="0.0" b="0.0" rho="1.0416667461395264"/>
                <iidm:step r="0.0" x="0.0" g="0.0" b="0.0" rho="1.0309277772903442"/>
                <iidm:step r="0.0" x="0.0" g="0.0" b="0.0" rho="1.0204081535339355"/>
                <iidm:step r="0.0" x="0.0" g="0.0" b="0.0" rho="1.0101009607315063"/>
                <iidm:step r="0.0" x="0.0" g="0.0" b="0.0" rho="1.0"/>
                <iidm:step r="0.0" x="0.0" g="0.0" b="0.0" rho="0.9900990128517151"/>
                <iidm:step r="0.0" x="0.0" g="0.0" b="0.0" rho="0.9803921580314636"/>
                <iidm:step r="0.0" x="0.0" g="0.0" b="0.0" rho="0.9708738327026367"/>
                <iidm:step r="0.0" x="0.0" g="0.0" b="0.0" rho="0.9615384936332703"/>
                <iidm:step r="0.0" x="0.0" g="0.0" b="0.0" rho="0.9523810148239136"/>
            </iidm:ratioTapChanger>
            <iidm:currentLimits1 permanentLimit="46188.0"/>
            <iidm:currentLimits2 permanentLimit="46188.0"/>
        </iidm:twoWindingsTransformer>
        <iidm:twoWindingsTransformer id="Tr47-4047" r="0.0" x="0.20000001788139343" g="0.0" b="0.0" ratedU1="400.0" ratedU2="20.0" bus1="4047_401" connectableBus1="4047_401" voltageLevelId1="4047_400" bus2="B47___21" connectableBus2="B47___21" voltageLevelId2="B47___20" p1="100.01100158691406" q1="50.039588928222656" p2="-100.01100158691406" q2="-44.0099983215332">
            <iidm:ratioTapChanger lowTapPosition="0" tapPosition="24" targetDeadband="0.0" loadTapChangingCapabilities="true" regulating="true" targetV="20.0">
                <iidm:terminalRef id="Tr47-4047" side="TWO"/>
                <iidm:step r="0.0" x="0.0" g="0.0" b="0.0" rho="1.25"/>
                <iidm:step r="0.0" x="0.0" g="0.0" b="0.0" rho="1.2345678806304932"/>
                <iidm:step r="0.0" x="0.0" g="0.0" b="0.0" rho="1.2195122241973877"/>
                <iidm:step r="0.0" x="0.0" g="0.0" b="0.0" rho="1.2048193216323853"/>
                <iidm:step r="0.0" x="0.0" g="0.0" b="0.0" rho="1.1904761791229248"/>
                <iidm:step r="0.0" x="0.0" g="0.0" b="0.0" rho="1.1764705181121826"/>
                <iidm:step r="0.0" x="0.0" g="0.0" b="0.0" rho="1.1627906560897827"/>
                <iidm:step r="0.0" x="0.0" g="0.0" b="0.0" rho="1.1494252681732178"/>
                <iidm:step r="0.0" x="0.0" g="0.0" b="0.0" rho="1.1363636255264282"/>
                <iidm:step r="0.0" x="0.0" g="0.0" b="0.0" rho="1.1235954761505127"/>
                <iidm:step r="0.0" x="0.0" g="0.0" b="0.0" rho="1.1111111640930176"/>
                <iidm:step r="0.0" x="0.0" g="0.0" b="0.0" rho="1.0989010334014893"/>
                <iidm:step r="0.0" x="0.0" g="0.0" b="0.0" rho="1.08695650100708"/>
                <iidm:step r="0.0" x="0.0" g="0.0" b="0.0" rho="1.0752688646316528"/>
                <iidm:step r="0.0" x="0.0" g="0.0" b="0.0" rho="1.063829779624939"/>
                <iidm:step r="0.0" x="0.0" g="0.0" b="0.0" rho="1.0526316165924072"/>
                <iidm:step r="0.0" x="0.0" g="0.0" b="0.0" rho="1.0416667461395264"/>
                <iidm:step r="0.0" x="0.0" g="0.0" b="0.0" rho="1.0309277772903442"/>
                <iidm:step r="0.0" x="0.0" g="0.0" b="0.0" rho="1.0204081535339355"/>
                <iidm:step r="0.0" x="0.0" g="0.0" b="0.0" rho="1.0101009607315063"/>
                <iidm:step r="0.0" x="0.0" g="0.0" b="0.0" rho="1.0"/>
                <iidm:step r="0.0" x="0.0" g="0.0" b="0.0" rho="0.9900990128517151"/>
                <iidm:step r="0.0" x="0.0" g="0.0" b="0.0" rho="0.9803921580314636"/>
                <iidm:step r="0.0" x="0.0" g="0.0" b="0.0" rho="0.9708738327026367"/>
                <iidm:step r="0.0" x="0.0" g="0.0" b="0.0" rho="0.9615384936332703"/>
                <iidm:step r="0.0" x="0.0" g="0.0" b="0.0" rho="0.9523810148239136"/>
                <iidm:step r="0.0" x="0.0" g="0.0" b="0.0" rho="0.943396270275116"/>
                <iidm:step r="0.0" x="0.0" g="0.0" b="0.0" rho="0.9345793724060059"/>
                <iidm:step r="0.0" x="0.0" g="0.0" b="0.0" rho="0.9259259104728699"/>
                <iidm:step r="0.0" x="0.0" g="0.0" b="0.0" rho="0.9174311757087708"/>
                <iidm:step r="0.0" x="0.0" g="0.0" b="0.0" rho="0.9090908765792847"/>
                <iidm:step r="0.0" x="0.0" g="0.0" b="0.0" rho="0.9009009003639221"/>
                <iidm:step r="0.0" x="0.0" g="0.0" b="0.0" rho="0.8928571343421936"/>
            </iidm:ratioTapChanger>
            <iidm:currentLimits1 permanentLimit="5773.5"/>
            <iidm:currentLimits2 permanentLimit="5773.5"/>
        </iidm:twoWindingsTransformer>
    </iidm:substation>
    <iidm:substation id="_250c159b-fc90-488e-835c-a7fa3b1f7127" country="FR" tso="RTE">
        <iidm:voltageLevel id="4032_400" nominalV="400.0" highVoltageLimit="420.0" topologyKind="BUS_BREAKER">
            <iidm:busBreakerTopology>
                <iidm:bus id="4032_401" v="419.47149658203125" angle="19.69188616963198"/>
            </iidm:busBreakerTopology>
        </iidm:voltageLevel>
    </iidm:substation>
    <iidm:substation id="_24b8bbc5-1f71-4d9f-a22f-2c1a9dc6b44b" country="FR" tso="RTE">
        <iidm:voltageLevel id="1043_130" nominalV="130.0" highVoltageLimit="136.5" topologyKind="BUS_BREAKER">
            <iidm:busBreakerTopology>
                <iidm:bus id="1043_131" v="133.5725860595703" angle="-12.542857792747512"/>
            </iidm:busBreakerTopology>
            <iidm:shunt id="1043-Cap" sectionCount="1" voltageRegulatorOn="false" bus="1043_131" connectableBus="1043_131" q="-211.14329528808594">
                <iidm:property name="qMax" value="200"/>
                <iidm:shuntLinearModel bPerSection="0.011834300123155117" maximumSectionCount="1"/>
            </iidm:shunt>
        </iidm:voltageLevel>
        <iidm:voltageLevel id="B03___20" nominalV="20.0" highVoltageLimit="21.0" topologyKind="BUS_BREAKER">
            <iidm:busBreakerTopology>
                <iidm:bus id="B03___21" v="19.949119567871094" angle="-15.735985743880459"/>
            </iidm:busBreakerTopology>
            <iidm:load id="03_1" loadType="UNDEFINED" p0="260.0" q0="83.84239959716797" bus="B03___21" connectableBus="B03___21" p="260.0" q="83.84239959716797"/>
        </iidm:voltageLevel>
        <iidm:voltageLevel id="BG07__15" nominalV="15.0" highVoltageLimit="15.750001907348633" topologyKind="BUS_BREAKER">
            <iidm:busBreakerTopology>
                <iidm:bus id="BG07__11" v="15.211889266967773" angle="-4.724267252187161"/>
            </iidm:busBreakerTopology>
            <iidm:generator id="g07" energySource="THERMAL" minP="0.0" maxP="9999.0" voltageRegulatorOn="true" targetP="180.0" targetV="15.211499214172363" targetQ="60.400001525878906" bus="BG07__11" connectableBus="BG07__11" p="-180.0" q="-60.400001525878906">
                <iidm:property name="genreCvg" value="AUTRE"/>
                <iidm:reactiveCapabilityCurve>
                    <iidm:point p="0.0" minQ="-200.0" maxQ="200.0"/>
                    <iidm:point p="9999.0" minQ="-200.0" maxQ="200.0"/>
                </iidm:reactiveCapabilityCurve>
            </iidm:generator>
        </iidm:voltageLevel>
        <iidm:twoWindingsTransformer id="Tr1043-g7" r="0.0" x="0.16875003278255463" g="0.0" b="0.0" ratedU1="130.0" ratedU2="15.0" bus1="1043_131" connectableBus1="1043_131" voltageLevelId1="1043_130" bus2="BG07__11" connectableBus2="BG07__11" voltageLevelId2="BG07__15" p1="-180.0" q1="-34.11181640625" p2="180.0" q2="60.400001525878906">
            <iidm:ratioTapChanger lowTapPosition="0" tapPosition="10" loadTapChangingCapabilities="false">
                <iidm:step r="0.0" x="0.0" g="0.0" b="0.0" rho="1.0526316165924072"/>
                <iidm:step r="0.0" x="0.0" g="0.0" b="0.0" rho="1.0416667461395264"/>
                <iidm:step r="0.0" x="0.0" g="0.0" b="0.0" rho="1.0309277772903442"/>
                <iidm:step r="0.0" x="0.0" g="0.0" b="0.0" rho="1.0204081535339355"/>
                <iidm:step r="0.0" x="0.0" g="0.0" b="0.0" rho="1.0101009607315063"/>
                <iidm:step r="0.0" x="0.0" g="0.0" b="0.0" rho="1.0"/>
                <iidm:step r="0.0" x="0.0" g="0.0" b="0.0" rho="0.9900990128517151"/>
                <iidm:step r="0.0" x="0.0" g="0.0" b="0.0" rho="0.9803921580314636"/>
                <iidm:step r="0.0" x="0.0" g="0.0" b="0.0" rho="0.9708738327026367"/>
                <iidm:step r="0.0" x="0.0" g="0.0" b="0.0" rho="0.9615384936332703"/>
                <iidm:step r="0.0" x="0.0" g="0.0" b="0.0" rho="0.9523810148239136"/>
            </iidm:ratioTapChanger>
            <iidm:currentLimits1 permanentLimit="7697.99951171875"/>
            <iidm:currentLimits2 permanentLimit="7697.99951171875"/>
        </iidm:twoWindingsTransformer>
        <iidm:twoWindingsTransformer id="Tr3-1043" r="0.0" x="0.08695647120475769" g="0.0" b="0.0" ratedU1="130.0" ratedU2="20.0" bus1="1043_131" connectableBus1="1043_131" voltageLevelId1="1043_130" bus2="B03___21" connectableBus2="B03___21" voltageLevelId2="B03___20" p1="260.0" q1="100.1490707397461" p2="-260.0" q2="-83.84239959716797">
            <iidm:ratioTapChanger lowTapPosition="0" tapPosition="21" targetDeadband="0.0" loadTapChangingCapabilities="true" regulating="true" targetV="20.0">
                <iidm:terminalRef id="Tr3-1043" side="TWO"/>
                <iidm:step r="0.0" x="0.0" g="0.0" b="0.0" rho="1.25"/>
                <iidm:step r="0.0" x="0.0" g="0.0" b="0.0" rho="1.2345678806304932"/>
                <iidm:step r="0.0" x="0.0" g="0.0" b="0.0" rho="1.2195122241973877"/>
                <iidm:step r="0.0" x="0.0" g="0.0" b="0.0" rho="1.2048193216323853"/>
                <iidm:step r="0.0" x="0.0" g="0.0" b="0.0" rho="1.1904761791229248"/>
                <iidm:step r="0.0" x="0.0" g="0.0" b="0.0" rho="1.1764705181121826"/>
                <iidm:step r="0.0" x="0.0" g="0.0" b="0.0" rho="1.1627906560897827"/>
                <iidm:step r="0.0" x="0.0" g="0.0" b="0.0" rho="1.1494252681732178"/>
                <iidm:step r="0.0" x="0.0" g="0.0" b="0.0" rho="1.1363636255264282"/>
                <iidm:step r="0.0" x="0.0" g="0.0" b="0.0" rho="1.1235954761505127"/>
                <iidm:step r="0.0" x="0.0" g="0.0" b="0.0" rho="1.1111111640930176"/>
                <iidm:step r="0.0" x="0.0" g="0.0" b="0.0" rho="1.0989010334014893"/>
                <iidm:step r="0.0" x="0.0" g="0.0" b="0.0" rho="1.08695650100708"/>
                <iidm:step r="0.0" x="0.0" g="0.0" b="0.0" rho="1.0752688646316528"/>
                <iidm:step r="0.0" x="0.0" g="0.0" b="0.0" rho="1.063829779624939"/>
                <iidm:step r="0.0" x="0.0" g="0.0" b="0.0" rho="1.0526316165924072"/>
                <iidm:step r="0.0" x="0.0" g="0.0" b="0.0" rho="1.0416667461395264"/>
                <iidm:step r="0.0" x="0.0" g="0.0" b="0.0" rho="1.0309277772903442"/>
                <iidm:step r="0.0" x="0.0" g="0.0" b="0.0" rho="1.0204081535339355"/>
                <iidm:step r="0.0" x="0.0" g="0.0" b="0.0" rho="1.0101009607315063"/>
                <iidm:step r="0.0" x="0.0" g="0.0" b="0.0" rho="1.0"/>
                <iidm:step r="0.0" x="0.0" g="0.0" b="0.0" rho="0.9900990128517151"/>
                <iidm:step r="0.0" x="0.0" g="0.0" b="0.0" rho="0.9803921580314636"/>
                <iidm:step r="0.0" x="0.0" g="0.0" b="0.0" rho="0.9708738327026367"/>
                <iidm:step r="0.0" x="0.0" g="0.0" b="0.0" rho="0.9615384936332703"/>
                <iidm:step r="0.0" x="0.0" g="0.0" b="0.0" rho="0.9523810148239136"/>
                <iidm:step r="0.0" x="0.0" g="0.0" b="0.0" rho="0.943396270275116"/>
                <iidm:step r="0.0" x="0.0" g="0.0" b="0.0" rho="0.9345793724060059"/>
                <iidm:step r="0.0" x="0.0" g="0.0" b="0.0" rho="0.9259259104728699"/>
                <iidm:step r="0.0" x="0.0" g="0.0" b="0.0" rho="0.9174311757087708"/>
                <iidm:step r="0.0" x="0.0" g="0.0" b="0.0" rho="0.9090908765792847"/>
                <iidm:step r="0.0" x="0.0" g="0.0" b="0.0" rho="0.9009009003639221"/>
                <iidm:step r="0.0" x="0.0" g="0.0" b="0.0" rho="0.8928571343421936"/>
            </iidm:ratioTapChanger>
            <iidm:currentLimits1 permanentLimit="13279.0986328125"/>
            <iidm:currentLimits2 permanentLimit="13279.0986328125"/>
        </iidm:twoWindingsTransformer>
    </iidm:substation>
    <iidm:substation id="_1b2ccb49-0d4d-4dd1-b38d-4820f4ecacd5" country="FR" tso="RTE">
        <iidm:voltageLevel id="2031_220" nominalV="220.0" highVoltageLimit="231.0" topologyKind="BUS_BREAKER">
            <iidm:busBreakerTopology>
                <iidm:bus id="2031_221" v="226.13824462890625" angle="27.566247339199602"/>
            </iidm:busBreakerTopology>
        </iidm:voltageLevel>
        <iidm:voltageLevel id="4031_400" nominalV="400.0" highVoltageLimit="420.0" topologyKind="BUS_BREAKER">
            <iidm:busBreakerTopology>
                <iidm:bus id="4031_401" v="414.67596435546875" angle="24.76649303425614"/>
            </iidm:busBreakerTopology>
        </iidm:voltageLevel>
        <iidm:voltageLevel id="B31___20" nominalV="20.0" highVoltageLimit="21.0" topologyKind="BUS_BREAKER">
            <iidm:busBreakerTopology>
                <iidm:bus id="B31___21" v="20.084091186523438" angle="24.761763128255904"/>
            </iidm:busBreakerTopology>
            <iidm:load id="31_1" loadType="UNDEFINED" p0="100.00900268554688" q0="24.704200744628906" bus="B31___21" connectableBus="B31___21" p="100.00900268554688" q="24.704200744628906"/>
        </iidm:voltageLevel>
        <iidm:voltageLevel id="BG12__15" nominalV="15.0" highVoltageLimit="15.750001907348633" topologyKind="BUS_BREAKER">
            <iidm:busBreakerTopology>
                <iidm:bus id="BG12__11" v="15.29995346069336" angle="32.34732511669517"/>
            </iidm:busBreakerTopology>
            <iidm:generator id="g12" energySource="HYDRO" minP="0.0" maxP="9999.0" voltageRegulatorOn="true" targetP="310.0" targetV="15.300000190734863" targetQ="98.30000305175781" bus="BG12__11" connectableBus="BG12__11" p="-310.0" q="-98.30000305175781">
                <iidm:property name="genreCvg" value="AUTRE"/>
                <iidm:reactiveCapabilityCurve>
                    <iidm:point p="0.0" minQ="-350.0" maxQ="350.0"/>
                    <iidm:point p="9999.0" minQ="-350.0" maxQ="350.0"/>
                </iidm:reactiveCapabilityCurve>
            </iidm:generator>
        </iidm:voltageLevel>
        <iidm:twoWindingsTransformer id="Tr2031-4031" r="0.0" x="5.808242321014404" g="0.0" b="0.0" ratedU1="400.0" ratedU2="220.0" bus1="4031_401" connectableBus1="4031_401" voltageLevelId1="4031_400" bus2="2031_221" connectableBus2="2031_221" voltageLevelId2="2031_220" p1="-433.7358093261719" q1="86.523681640625" p2="433.7358093261719" q2="-64.68132019042969">
            <iidm:ratioTapChanger lowTapPosition="0" tapPosition="0" loadTapChangingCapabilities="false">
                <iidm:step r="0.0" x="0.0" g="0.0" b="0.0" rho="1.0"/>
            </iidm:ratioTapChanger>
            <iidm:currentLimits1 permanentLimit="2186.85009765625"/>
            <iidm:currentLimits2 permanentLimit="2186.85009765625"/>
        </iidm:twoWindingsTransformer>
        <iidm:twoWindingsTransformer id="Tr31-2031" r="0.0" x="0.20000001788139343" g="0.0" b="0.0" ratedU1="220.0" ratedU2="20.0" bus1="2031_221" connectableBus1="2031_221" voltageLevelId1="2031_220" bus2="B31___21" connectableBus2="B31___21" voltageLevelId2="B31___20" p1="100.00900268554688" q1="29.965909957885742" p2="-100.00900268554688" q2="-24.704200744628906">
            <iidm:ratioTapChanger lowTapPosition="0" tapPosition="21" targetDeadband="0.0" loadTapChangingCapabilities="true" regulating="true" targetV="20.0">
                <iidm:terminalRef id="Tr31-2031" side="TWO"/>
                <iidm:step r="0.0" x="0.0" g="0.0" b="0.0" rho="1.25"/>
                <iidm:step r="0.0" x="0.0" g="0.0" b="0.0" rho="1.2345678806304932"/>
                <iidm:step r="0.0" x="0.0" g="0.0" b="0.0" rho="1.2195122241973877"/>
                <iidm:step r="0.0" x="0.0" g="0.0" b="0.0" rho="1.2048193216323853"/>
                <iidm:step r="0.0" x="0.0" g="0.0" b="0.0" rho="1.1904761791229248"/>
                <iidm:step r="0.0" x="0.0" g="0.0" b="0.0" rho="1.1764705181121826"/>
                <iidm:step r="0.0" x="0.0" g="0.0" b="0.0" rho="1.1627906560897827"/>
                <iidm:step r="0.0" x="0.0" g="0.0" b="0.0" rho="1.1494252681732178"/>
                <iidm:step r="0.0" x="0.0" g="0.0" b="0.0" rho="1.1363636255264282"/>
                <iidm:step r="0.0" x="0.0" g="0.0" b="0.0" rho="1.1235954761505127"/>
                <iidm:step r="0.0" x="0.0" g="0.0" b="0.0" rho="1.1111111640930176"/>
                <iidm:step r="0.0" x="0.0" g="0.0" b="0.0" rho="1.0989010334014893"/>
                <iidm:step r="0.0" x="0.0" g="0.0" b="0.0" rho="1.08695650100708"/>
                <iidm:step r="0.0" x="0.0" g="0.0" b="0.0" rho="1.0752688646316528"/>
                <iidm:step r="0.0" x="0.0" g="0.0" b="0.0" rho="1.063829779624939"/>
                <iidm:step r="0.0" x="0.0" g="0.0" b="0.0" rho="1.0526316165924072"/>
                <iidm:step r="0.0" x="0.0" g="0.0" b="0.0" rho="1.0416667461395264"/>
                <iidm:step r="0.0" x="0.0" g="0.0" b="0.0" rho="1.0309277772903442"/>
                <iidm:step r="0.0" x="0.0" g="0.0" b="0.0" rho="1.0204081535339355"/>
                <iidm:step r="0.0" x="0.0" g="0.0" b="0.0" rho="1.0101009607315063"/>
                <iidm:step r="0.0" x="0.0" g="0.0" b="0.0" rho="1.0"/>
                <iidm:step r="0.0" x="0.0" g="0.0" b="0.0" rho="0.9900990128517151"/>
                <iidm:step r="0.0" x="0.0" g="0.0" b="0.0" rho="0.9803921580314636"/>
                <iidm:step r="0.0" x="0.0" g="0.0" b="0.0" rho="0.9708738327026367"/>
                <iidm:step r="0.0" x="0.0" g="0.0" b="0.0" rho="0.9615384936332703"/>
                <iidm:step r="0.0" x="0.0" g="0.0" b="0.0" rho="0.9523810148239136"/>
                <iidm:step r="0.0" x="0.0" g="0.0" b="0.0" rho="0.943396270275116"/>
                <iidm:step r="0.0" x="0.0" g="0.0" b="0.0" rho="0.9345793724060059"/>
                <iidm:step r="0.0" x="0.0" g="0.0" b="0.0" rho="0.9259259104728699"/>
                <iidm:step r="0.0" x="0.0" g="0.0" b="0.0" rho="0.9174311757087708"/>
                <iidm:step r="0.0" x="0.0" g="0.0" b="0.0" rho="0.9090908765792847"/>
                <iidm:step r="0.0" x="0.0" g="0.0" b="0.0" rho="0.9009009003639221"/>
                <iidm:step r="0.0" x="0.0" g="0.0" b="0.0" rho="0.8928571343421936"/>
            </iidm:ratioTapChanger>
            <iidm:currentLimits1 permanentLimit="5773.50048828125"/>
            <iidm:currentLimits2 permanentLimit="5773.50048828125"/>
        </iidm:twoWindingsTransformer>
        <iidm:twoWindingsTransformer id="Tr4031-g12" r="0.0" x="0.09642854332923889" g="0.0" b="0.0" ratedU1="400.0" ratedU2="15.0" bus1="4031_401" connectableBus1="4031_401" voltageLevelId1="4031_400" bus2="BG12__11" connectableBus2="BG12__11" voltageLevelId2="BG12__15" p1="-310.0" q1="-54.732906341552734" p2="310.0" q2="98.30000305175781">
            <iidm:ratioTapChanger lowTapPosition="0" tapPosition="10" loadTapChangingCapabilities="false">
                <iidm:step r="0.0" x="0.0" g="0.0" b="0.0" rho="1.0526316165924072"/>
                <iidm:step r="0.0" x="0.0" g="0.0" b="0.0" rho="1.0416667461395264"/>
                <iidm:step r="0.0" x="0.0" g="0.0" b="0.0" rho="1.0309277772903442"/>
                <iidm:step r="0.0" x="0.0" g="0.0" b="0.0" rho="1.0204081535339355"/>
                <iidm:step r="0.0" x="0.0" g="0.0" b="0.0" rho="1.0101009607315063"/>
                <iidm:step r="0.0" x="0.0" g="0.0" b="0.0" rho="1.0"/>
                <iidm:step r="0.0" x="0.0" g="0.0" b="0.0" rho="0.9900990128517151"/>
                <iidm:step r="0.0" x="0.0" g="0.0" b="0.0" rho="0.9803921580314636"/>
                <iidm:step r="0.0" x="0.0" g="0.0" b="0.0" rho="0.9708738327026367"/>
                <iidm:step r="0.0" x="0.0" g="0.0" b="0.0" rho="0.9615384936332703"/>
                <iidm:step r="0.0" x="0.0" g="0.0" b="0.0" rho="0.9523810148239136"/>
            </iidm:ratioTapChanger>
            <iidm:currentLimits1 permanentLimit="13471.5"/>
            <iidm:currentLimits2 permanentLimit="13471.5"/>
        </iidm:twoWindingsTransformer>
    </iidm:substation>
    <iidm:substation id="_6beeabdc-bc7d-4855-acaa-56ca82cee88c" country="FR" tso="RTE">
        <iidm:voltageLevel id="4041_400" nominalV="400.0" highVoltageLimit="420.0" topologyKind="BUS_BREAKER">
            <iidm:busBreakerTopology>
                <iidm:bus id="4041_401" v="420.24981689453125" angle="9.93255500613363"/>
            </iidm:busBreakerTopology>
            <iidm:shunt id="4041-Cap" sectionCount="1" voltageRegulatorOn="false" bus="4041_401" connectableBus="4041_401" q="-220.76239013671875">
                <iidm:property name="qMax" value="200"/>
                <iidm:shuntLinearModel bPerSection="0.0012499999720603228" maximumSectionCount="1"/>
            </iidm:shunt>
        </iidm:voltageLevel>
        <iidm:voltageLevel id="B41___20" nominalV="20.0" highVoltageLimit="21.0" topologyKind="BUS_BREAKER">
            <iidm:busBreakerTopology>
                <iidm:bus id="B41___21" v="19.935272216796875" angle="7.086361391249603"/>
            </iidm:busBreakerTopology>
            <iidm:load id="41_1" loadType="UNDEFINED" p0="540.0" q0="131.39999389648438" bus="B41___21" connectableBus="B41___21" p="540.0" q="131.39999389648438"/>
        </iidm:voltageLevel>
        <iidm:voltageLevel id="BG13__15" nominalV="15.0" highVoltageLimit="15.750001907348633" topologyKind="BUS_BREAKER">
            <iidm:busBreakerTopology>
                <iidm:bus id="BG13__11" v="15.255231857299805" angle="9.93255500613363"/>
            </iidm:busBreakerTopology>
            <iidm:generator id="g13 (CS)" energySource="OTHER" minP="0.0" maxP="9999.0" voltageRegulatorOn="true" targetP="3.3464001347738304E-8" targetV="15.255000114440918" targetQ="50.099998474121094" bus="BG13__11" connectableBus="BG13__11" p="-3.3464001347738304E-8" q="-50.099998474121094">
                <iidm:property name="genreCvg" value="AUTRE"/>
                <iidm:reactiveCapabilityCurve>
                    <iidm:point p="0.0" minQ="-300.0" maxQ="300.0"/>
                    <iidm:point p="9999.0" minQ="-300.0" maxQ="300.0"/>
                </iidm:reactiveCapabilityCurve>
            </iidm:generator>
        </iidm:voltageLevel>
        <iidm:twoWindingsTransformer id="Tr4041-g13" r="0.0" x="0.07499995082616806" g="0.0" b="0.0" ratedU1="400.0" ratedU2="15.0" bus1="4041_401" connectableBus1="4041_401" voltageLevelId1="4041_400" bus2="BG13__11" connectableBus2="BG13__11" voltageLevelId2="BG13__15" p1="-3.3463994242310946E-8" q1="-49.29109191894531" p2="3.3463994242310946E-8" q2="50.099998474121094">
            <iidm:ratioTapChanger lowTapPosition="0" tapPosition="10" loadTapChangingCapabilities="false">
                <iidm:step r="0.0" x="0.0" g="0.0" b="0.0" rho="1.0526316165924072"/>
                <iidm:step r="0.0" x="0.0" g="0.0" b="0.0" rho="1.0416667461395264"/>
                <iidm:step r="0.0" x="0.0" g="0.0" b="0.0" rho="1.0309277772903442"/>
                <iidm:step r="0.0" x="0.0" g="0.0" b="0.0" rho="1.0204081535339355"/>
                <iidm:step r="0.0" x="0.0" g="0.0" b="0.0" rho="1.0101009607315063"/>
                <iidm:step r="0.0" x="0.0" g="0.0" b="0.0" rho="1.0"/>
                <iidm:step r="0.0" x="0.0" g="0.0" b="0.0" rho="0.9900990128517151"/>
                <iidm:step r="0.0" x="0.0" g="0.0" b="0.0" rho="0.9803921580314636"/>
                <iidm:step r="0.0" x="0.0" g="0.0" b="0.0" rho="0.9708738327026367"/>
                <iidm:step r="0.0" x="0.0" g="0.0" b="0.0" rho="0.9615384936332703"/>
                <iidm:step r="0.0" x="0.0" g="0.0" b="0.0" rho="0.9523810148239136"/>
            </iidm:ratioTapChanger>
            <iidm:currentLimits1 permanentLimit="11547.0"/>
            <iidm:currentLimits2 permanentLimit="11547.0"/>
        </iidm:twoWindingsTransformer>
        <iidm:twoWindingsTransformer id="Tr41-4041" r="0.0" x="0.03703700006008148" g="0.0" b="0.0" ratedU1="400.0" ratedU2="20.0" bus1="4041_401" connectableBus1="4041_401" voltageLevelId1="4041_400" bus2="B41___21" connectableBus2="B41___21" voltageLevelId2="B41___20" p1="540.0" q1="160.18467712402344" p2="-540.0" q2="-131.39999389648438">
            <iidm:ratioTapChanger lowTapPosition="0" tapPosition="24" targetDeadband="0.0" loadTapChangingCapabilities="true" regulating="true" targetV="20.0">
                <iidm:terminalRef id="Tr41-4041" side="TWO"/>
                <iidm:step r="0.0" x="0.0" g="0.0" b="0.0" rho="1.25"/>
                <iidm:step r="0.0" x="0.0" g="0.0" b="0.0" rho="1.2345678806304932"/>
                <iidm:step r="0.0" x="0.0" g="0.0" b="0.0" rho="1.2195122241973877"/>
                <iidm:step r="0.0" x="0.0" g="0.0" b="0.0" rho="1.2048193216323853"/>
                <iidm:step r="0.0" x="0.0" g="0.0" b="0.0" rho="1.1904761791229248"/>
                <iidm:step r="0.0" x="0.0" g="0.0" b="0.0" rho="1.1764705181121826"/>
                <iidm:step r="0.0" x="0.0" g="0.0" b="0.0" rho="1.1627906560897827"/>
                <iidm:step r="0.0" x="0.0" g="0.0" b="0.0" rho="1.1494252681732178"/>
                <iidm:step r="0.0" x="0.0" g="0.0" b="0.0" rho="1.1363636255264282"/>
                <iidm:step r="0.0" x="0.0" g="0.0" b="0.0" rho="1.1235954761505127"/>
                <iidm:step r="0.0" x="0.0" g="0.0" b="0.0" rho="1.1111111640930176"/>
                <iidm:step r="0.0" x="0.0" g="0.0" b="0.0" rho="1.0989010334014893"/>
                <iidm:step r="0.0" x="0.0" g="0.0" b="0.0" rho="1.08695650100708"/>
                <iidm:step r="0.0" x="0.0" g="0.0" b="0.0" rho="1.0752688646316528"/>
...